data_Cu(111)
_audit_creation_date              2025-07-06
_audit_creation_method            'Materials Studio'
_symmetry_space_group_name_H-M    'P1'
_symmetry_Int_Tables_number       1
_symmetry_cell_setting            triclinic
loop_
_symmetry_equiv_pos_as_xyz
  x,y,z
_cell_length_a                    5.0593
_cell_length_b                    5.0593
_cell_length_c                    18.2617
_cell_angle_alpha                 90.0000
_cell_angle_beta                  90.0000
_cell_angle_gamma                 60.0000
loop_
_atom_site_label
_atom_site_type_symbol
_atom_site_fract_x
_atom_site_fract_y
_atom_site_fract_z
_atom_site_U_iso_or_equiv
_atom_site_adp_type
_atom_site_occupancy
Cu1    Cu    0.00000   0.00000   0.00000   0.00000  Uiso   1.00
Cu2    Cu    0.00000   0.50000   0.00000   0.00000  Uiso   1.00
Cu3    Cu    0.50000   0.00000   0.00000   0.00000  Uiso   1.00
Cu4    Cu    0.50000   0.50000   0.00000   0.00000  Uiso   1.00
Cu5    Cu    0.66667   0.66667   0.11310   0.00000  Uiso   1.00
Cu6    Cu    0.66667   0.16667   0.11310   0.00000  Uiso   1.00
Cu7    Cu    0.16667   0.66667   0.11310   0.00000  Uiso   1.00
Cu8    Cu    0.16667   0.16667   0.11310   0.00000  Uiso   1.00
Cu9    Cu    0.33333   0.33333   0.22620   0.00000  Uiso   1.00
Cu10   Cu    0.33333   0.83333   0.22620   0.00000  Uiso   1.00
Cu11   Cu    0.83333   0.33333   0.22620   0.00000  Uiso   1.00
Cu12   Cu    0.83333   0.83333   0.22620   0.00000  Uiso   1.00
Cu13   Cu    0.00000   0.00000   0.33930   0.00000  Uiso   1.00
Cu14   Cu    0.00000   0.50000   0.33930   0.00000  Uiso   1.00
Cu15   Cu    0.50000   0.00000   0.33930   0.00000  Uiso   1.00
Cu16   Cu    0.50000   0.50000   0.33930   0.00000  Uiso   1.00
