data_POSCAR5
_audit_creation_date              2025-07-18
_audit_creation_method            'Materials Studio'
_symmetry_space_group_name_H-M    'P1'
_symmetry_Int_Tables_number       1
_symmetry_cell_setting            triclinic
loop_
_symmetry_equiv_pos_as_xyz
  x,y,z
_cell_length_a                    15.5554
_cell_length_b                    15.5554
_cell_length_c                    28.6250
_cell_angle_alpha                 90.0000
_cell_angle_beta                  90.0000
_cell_angle_gamma                 90.0000
loop_
_atom_site_label
_atom_site_type_symbol
_atom_site_fract_x
_atom_site_fract_y
_atom_site_fract_z
_atom_site_U_iso_or_equiv
_atom_site_adp_type
_atom_site_occupancy
Ce1    Ce    0.06076   0.20909   0.11382   0.00000  Uiso   1.00
Ce2    Ce    0.31082   0.20909   0.11382   0.00000  Uiso   1.00
Ce3    Ce    0.06075   0.45903   0.11384   0.00000  Uiso   1.00
Ce4    Ce    0.31086   0.45903   0.11383   0.00000  Uiso   1.00
Ce5    Ce    0.56081   0.20886   0.11385   0.00000  Uiso   1.00
Ce6    Ce    0.81078   0.20887   0.11384   0.00000  Uiso   1.00
Ce7    Ce    0.56083   0.45887   0.11383   0.00000  Uiso   1.00
Ce8    Ce    0.81077   0.45887   0.11383   0.00000  Uiso   1.00
Ce9    Ce    0.06082   0.70899   0.11385   0.00000  Uiso   1.00
Ce10   Ce    0.31079   0.70899   0.11385   0.00000  Uiso   1.00
Ce11   Ce    0.06082   0.95905   0.11385   0.00000  Uiso   1.00
Ce12   Ce    0.31076   0.95904   0.11385   0.00000  Uiso   1.00
Ce13   Ce    0.56079   0.70888   0.11385   0.00000  Uiso   1.00
Ce14   Ce    0.81081   0.70888   0.11385   0.00000  Uiso   1.00
Ce15   Ce    0.56077   0.95889   0.11385   0.00000  Uiso   1.00
Ce16   Ce    0.81082   0.95888   0.11385   0.00000  Uiso   1.00
Ce17   Ce    0.43577   0.08401   0.21072   0.00000  Uiso   1.00
Ce18   Ce    0.18580   0.33393   0.21067   0.00000  Uiso   1.00
Ce19   Ce    0.43581   0.33394   0.21072   0.00000  Uiso   1.00
Ce20   Ce    0.68579   0.08389   0.21072   0.00000  Uiso   1.00
Ce21   Ce    0.93581   0.08400   0.21072   0.00000  Uiso   1.00
Ce22   Ce    0.68579   0.33386   0.21072   0.00000  Uiso   1.00
Ce23   Ce    0.93578   0.33395   0.21072   0.00000  Uiso   1.00
Ce24   Ce    0.18582   0.58395   0.21072   0.00000  Uiso   1.00
Ce25   Ce    0.43582   0.58396   0.21072   0.00000  Uiso   1.00
Ce26   Ce    0.18580   0.83389   0.21077   0.00000  Uiso   1.00
Ce27   Ce    0.43576   0.83394   0.21073   0.00000  Uiso   1.00
Ce28   Ce    0.68580   0.58387   0.21072   0.00000  Uiso   1.00
Ce29   Ce    0.93579   0.58396   0.21072   0.00000  Uiso   1.00
Ce30   Ce    0.68579   0.83385   0.21071   0.00000  Uiso   1.00
Ce31   Ce    0.93583   0.83393   0.21073   0.00000  Uiso   1.00
Ce32   Ce    0.18579   0.08411   0.21072   0.00000  Uiso   1.00
Ce33   Ce    0.06079   0.20896   0.30762   0.00000  Uiso   1.00
Ce34   Ce    0.31078   0.20896   0.30761   0.00000  Uiso   1.00
Ce35   Ce    0.06080   0.45892   0.30762   0.00000  Uiso   1.00
Ce36   Ce    0.31082   0.45891   0.30762   0.00000  Uiso   1.00
Ce37   Ce    0.56078   0.20886   0.30763   0.00000  Uiso   1.00
Ce38   Ce    0.81079   0.20886   0.30763   0.00000  Uiso   1.00
Ce39   Ce    0.56080   0.45887   0.30764   0.00000  Uiso   1.00
Ce40   Ce    0.81080   0.45887   0.30764   0.00000  Uiso   1.00
Ce41   Ce    0.06080   0.70889   0.30764   0.00000  Uiso   1.00
Ce42   Ce    0.31081   0.70890   0.30764   0.00000  Uiso   1.00
Ce43   Ce    0.06078   0.95895   0.30768   0.00000  Uiso   1.00
Ce44   Ce    0.31078   0.95895   0.30768   0.00000  Uiso   1.00
Ce45   Ce    0.56081   0.70887   0.30762   0.00000  Uiso   1.00
Ce46   Ce    0.81079   0.70887   0.30762   0.00000  Uiso   1.00
Ce47   Ce    0.56078   0.95886   0.30761   0.00000  Uiso   1.00
Ce48   Ce    0.81079   0.95886   0.30762   0.00000  Uiso   1.00
O49    O     0.06076   0.08380   0.07648   0.00000  Uiso   1.00
O50    O     0.31086   0.08379   0.07648   0.00000  Uiso   1.00
O51    O     0.06067   0.33388   0.07644   0.00000  Uiso   1.00
O52    O     0.31093   0.33389   0.07644   0.00000  Uiso   1.00
O53    O     0.56082   0.08385   0.07648   0.00000  Uiso   1.00
O54    O     0.81080   0.08385   0.07648   0.00000  Uiso   1.00
O55    O     0.56081   0.33383   0.07649   0.00000  Uiso   1.00
O56    O     0.81080   0.33382   0.07649   0.00000  Uiso   1.00
O57    O     0.06079   0.58384   0.07648   0.00000  Uiso   1.00
O58    O     0.31082   0.58384   0.07647   0.00000  Uiso   1.00
O59    O     0.06087   0.83387   0.07651   0.00000  Uiso   1.00
O60    O     0.31073   0.83385   0.07651   0.00000  Uiso   1.00
O61    O     0.56081   0.58385   0.07648   0.00000  Uiso   1.00
O62    O     0.81080   0.58385   0.07648   0.00000  Uiso   1.00
O63    O     0.56080   0.83384   0.07649   0.00000  Uiso   1.00
O64    O     0.81082   0.83384   0.07649   0.00000  Uiso   1.00
O65    O     0.06083   0.08416   0.16652   0.00000  Uiso   1.00
O66    O     0.31073   0.08415   0.16651   0.00000  Uiso   1.00
O67    O     0.06073   0.33414   0.16647   0.00000  Uiso   1.00
O68    O     0.31086   0.33412   0.16647   0.00000  Uiso   1.00
O69    O     0.56079   0.08386   0.16650   0.00000  Uiso   1.00
O70    O     0.81081   0.08386   0.16650   0.00000  Uiso   1.00
O71    O     0.56083   0.33391   0.16650   0.00000  Uiso   1.00
O72    O     0.81076   0.33392   0.16650   0.00000  Uiso   1.00
O73    O     0.06079   0.58399   0.16649   0.00000  Uiso   1.00
O74    O     0.31082   0.58399   0.16649   0.00000  Uiso   1.00
O75    O     0.06082   0.83402   0.16653   0.00000  Uiso   1.00
O76    O     0.31077   0.83405   0.16653   0.00000  Uiso   1.00
O77    O     0.56083   0.58393   0.16650   0.00000  Uiso   1.00
O78    O     0.81078   0.58393   0.16650   0.00000  Uiso   1.00
O79    O     0.56075   0.83394   0.16650   0.00000  Uiso   1.00
O80    O     0.81085   0.83393   0.16650   0.00000  Uiso   1.00
O81    O     0.18578   0.20919   0.15676   0.00000  Uiso   1.00
O82    O     0.43583   0.20899   0.15691   0.00000  Uiso   1.00
O83    O     0.18580   0.45902   0.15685   0.00000  Uiso   1.00
O84    O     0.43585   0.45898   0.15691   0.00000  Uiso   1.00
O85    O     0.68580   0.20883   0.15691   0.00000  Uiso   1.00
O86    O     0.93575   0.20900   0.15691   0.00000  Uiso   1.00
O87    O     0.68580   0.45890   0.15690   0.00000  Uiso   1.00
O88    O     0.93575   0.45899   0.15691   0.00000  Uiso   1.00
O89    O     0.18580   0.70897   0.15692   0.00000  Uiso   1.00
O90    O     0.43580   0.70896   0.15690   0.00000  Uiso   1.00
O91    O     0.18578   0.95906   0.15698   0.00000  Uiso   1.00
O92    O     0.43573   0.95901   0.15690   0.00000  Uiso   1.00
O93    O     0.68580   0.70892   0.15691   0.00000  Uiso   1.00
O94    O     0.93581   0.70895   0.15690   0.00000  Uiso   1.00
O95    O     0.68580   0.95884   0.15690   0.00000  Uiso   1.00
O96    O     0.93586   0.95900   0.15690   0.00000  Uiso   1.00
O97    O     0.06078   0.08393   0.25492   0.00000  Uiso   1.00
O98    O     0.31076   0.08395   0.25491   0.00000  Uiso   1.00
O99    O     0.06079   0.33394   0.25489   0.00000  Uiso   1.00
O100   O     0.31079   0.33391   0.25488   0.00000  Uiso   1.00
O101   O     0.56077   0.08390   0.25490   0.00000  Uiso   1.00
O102   O     0.81081   0.08391   0.25490   0.00000  Uiso   1.00
O103   O     0.56081   0.33389   0.25491   0.00000  Uiso   1.00
O104   O     0.81078   0.33389   0.25491   0.00000  Uiso   1.00
O105   O     0.06079   0.58387   0.25491   0.00000  Uiso   1.00
O106   O     0.31081   0.58387   0.25491   0.00000  Uiso   1.00
O107   O     0.06079   0.83389   0.25493   0.00000  Uiso   1.00
O108   O     0.31078   0.83390   0.25493   0.00000  Uiso   1.00
O109   O     0.56081   0.58385   0.25491   0.00000  Uiso   1.00
O110   O     0.81080   0.58385   0.25491   0.00000  Uiso   1.00
O111   O     0.56079   0.83389   0.25490   0.00000  Uiso   1.00
O112   O     0.81080   0.83388   0.25490   0.00000  Uiso   1.00
O113   O     0.18576   0.20898   0.26460   0.00000  Uiso   1.00
O114   O     0.43579   0.20895   0.26463   0.00000  Uiso   1.00
O115   O     0.18580   0.45892   0.26461   0.00000  Uiso   1.00
O116   O     0.43581   0.45888   0.26463   0.00000  Uiso   1.00
O117   O     0.68580   0.20885   0.26462   0.00000  Uiso   1.00
O118   O     0.93579   0.20896   0.26464   0.00000  Uiso   1.00
O119   O     0.68581   0.45887   0.26463   0.00000  Uiso   1.00
O120   O     0.93579   0.45889   0.26463   0.00000  Uiso   1.00
O121   O     0.18580   0.70888   0.26463   0.00000  Uiso   1.00
O122   O     0.43581   0.70889   0.26462   0.00000  Uiso   1.00
O123   O     0.18578   0.95897   0.26465   0.00000  Uiso   1.00
O124   O     0.43577   0.95893   0.26461   0.00000  Uiso   1.00
O125   O     0.68580   0.70886   0.26462   0.00000  Uiso   1.00
O126   O     0.93579   0.70888   0.26461   0.00000  Uiso   1.00
O127   O     0.68580   0.95886   0.26461   0.00000  Uiso   1.00
O128   O     0.93580   0.95891   0.26462   0.00000  Uiso   1.00
O129   O     0.06080   0.08390   0.34500   0.00000  Uiso   1.00
O130   O     0.31084   0.08388   0.34499   0.00000  Uiso   1.00
O131   O     0.06077   0.33390   0.34498   0.00000  Uiso   1.00
O132   O     0.56082   0.08383   0.34497   0.00000  Uiso   1.00
O133   O     0.81081   0.08383   0.34497   0.00000  Uiso   1.00
O134   O     0.81079   0.33384   0.34498   0.00000  Uiso   1.00
O135   O     0.06080   0.58385   0.34498   0.00000  Uiso   1.00
O136   O     0.06078   0.83388   0.34500   0.00000  Uiso   1.00
O137   O     0.31082   0.83387   0.34499   0.00000  Uiso   1.00
O138   O     0.81081   0.58385   0.34498   0.00000  Uiso   1.00
O139   O     0.56079   0.83386   0.34497   0.00000  Uiso   1.00
O140   O     0.81083   0.83386   0.34497   0.00000  Uiso   1.00
O141   O     0.34586   0.60619   0.35303   0.00000  Uiso   1.00
O142   O     0.53534   0.59845   0.35056   0.00000  Uiso   1.00
O143   O     0.44341   0.58419   0.43803   0.00000  Uiso   1.00
O144   O     0.43095   0.45507   0.35754   0.00000  Uiso   1.00
O145   O     0.32220   0.32750   0.35527   0.00000  Uiso   1.00
O146   O     0.54952   0.33921   0.35311   0.00000  Uiso   1.00
O147   O     0.43633   0.32967   0.43946   0.00000  Uiso   1.00
O148   O     0.43936   0.21230   0.35412   0.00000  Uiso   1.00
W149   W     0.43664   0.32880   0.37892   0.00000  Uiso   1.00
V150   V     0.43980   0.56774   0.38230   0.00000  Uiso   1.00
O151   O     0.69091   0.95973   0.34497   0.00000  Uiso   1.00
loop_
_geom_bond_atom_site_label_1
_geom_bond_atom_site_label_2
_geom_bond_distance
_geom_bond_site_symmetry_2
_ccdc_geom_bond_type
Ce1    O49     2.223   .     S
Ce1    O51     2.217   .     S
Ce1    O65     2.460   .     S
Ce1    O67     2.461   .     S
Ce1    O81     2.301   .     S
Ce1    O86     2.303   1_455 S
Ce2    O50     2.223   .     S
Ce2    O52     2.217   .     S
Ce2    O66     2.460   .     S
Ce2    O68     2.460   .     S
Ce2    O81     2.301   .     S
Ce2    O82     2.303   .     S
Ce3    O51     2.222   .     S
Ce3    O57     2.217   .     S
Ce3    O67     2.458   .     S
Ce3    O73     2.460   .     S
Ce3    O83     2.302   .     S
Ce3    O88     2.302   1_455 S
Ce4    O52     2.221   .     S
Ce4    O58     2.217   .     S
Ce4    O68     2.459   .     S
Ce4    O74     2.460   .     S
Ce4    O83     2.302   .     S
Ce4    O84     2.302   .     S
Ce5    O53     2.219   .     S
Ce5    O55     2.219   .     S
Ce5    O69     2.460   .     S
Ce5    O71     2.461   .     S
Ce5    O82     2.302   .     S
Ce5    O85     2.302   .     S
Ce6    O54     2.219   .     S
Ce6    O56     2.218   .     S
Ce6    O70     2.460   .     S
Ce6    O72     2.461   .     S
Ce6    O85     2.302   .     S
Ce6    O86     2.302   .     S
Ce7    O55     2.219   .     S
Ce7    O61     2.219   .     S
Ce7    O71     2.460   .     S
Ce7    O77     2.461   .     S
Ce7    O84     2.302   .     S
Ce7    O87     2.302   .     S
Ce8    O56     2.220   .     S
Ce8    O62     2.219   .     S
Ce8    O72     2.460   .     S
Ce8    O78     2.461   .     S
Ce8    O87     2.302   .     S
Ce8    O88     2.302   .     S
Ce9    O57     2.221   .     S
Ce9    O59     2.217   .     S
Ce9    O73     2.460   .     S
Ce9    O75     2.461   .     S
Ce9    O89     2.302   .     S
Ce9    O94     2.302   1_455 S
Ce10   O58     2.221   .     S
Ce10   O60     2.217   .     S
Ce10   O74     2.460   .     S
Ce10   O76     2.461   .     S
Ce10   O89     2.302   .     S
Ce10   O90     2.302   .     S
Ce11   O49     2.216   1_565 S
Ce11   O59     2.221   .     S
Ce11   O65     2.462   1_565 S
Ce11   O75     2.461   .     S
Ce11   O91     2.303   .     S
Ce11   O96     2.302   1_455 S
Ce12   O50     2.216   1_565 S
Ce12   O60     2.221   .     S
Ce12   O66     2.462   1_565 S
Ce12   O76     2.461   .     S
Ce12   O91     2.303   .     S
Ce12   O92     2.302   .     S
Ce13   O61     2.220   .     S
Ce13   O63     2.219   .     S
Ce13   O77     2.459   .     S
Ce13   O79     2.461   .     S
Ce13   O90     2.302   .     S
Ce13   O93     2.302   .     S
Ce14   O62     2.220   .     S
Ce14   O64     2.219   .     S
Ce14   O78     2.459   .     S
Ce14   O80     2.461   .     S
Ce14   O93     2.302   .     S
Ce14   O94     2.302   .     S
Ce15   O53     2.219   1_565 S
Ce15   O63     2.220   .     S
Ce15   O69     2.460   1_565 S
Ce15   O79     2.459   .     S
Ce15   O92     2.303   .     S
Ce15   O95     2.302   .     S
Ce16   O54     2.219   1_565 S
Ce16   O64     2.220   .     S
Ce16   O70     2.460   1_565 S
Ce16   O80     2.460   .     S
Ce16   O95     2.302   .     S
Ce16   O96     2.303   .     S
Ce17   O66     2.320   .     S
Ce17   O69     2.320   .     S
Ce17   O82     2.480   .     S
Ce17   O92     2.481   1_545 S
Ce17   O98     2.320   .     S
Ce17   O101    2.320   .     S
Ce17   O114    2.482   .     S
Ce17   O124    2.483   1_545 S
Ce18   O67     2.321   .     S
Ce18   O68     2.321   .     S
Ce18   O81     2.479   .     S
Ce18   O83     2.482   .     S
Ce18   O99     2.320   .     S
Ce18   O100    2.320   .     S
Ce18   O113    2.482   .     S
Ce18   O115    2.483   .     S
Ce19   O68     2.320   .     S
Ce19   O71     2.320   .     S
Ce19   O82     2.480   .     S
Ce19   O84     2.481   .     S
Ce19   O100    2.320   .     S
Ce19   O103    2.320   .     S
Ce19   O114    2.482   .     S
Ce19   O116    2.482   .     S
Ce20   O69     2.320   .     S
Ce20   O70     2.320   .     S
Ce20   O85     2.480   .     S
Ce20   O95     2.481   1_545 S
Ce20   O101    2.320   .     S
Ce20   O102    2.320   .     S
Ce20   O117    2.482   .     S
Ce20   O127    2.482   1_545 S
Ce21   O65     2.320   1_655 S
Ce21   O70     2.320   .     S
Ce21   O86     2.481   .     S
Ce21   O96     2.481   1_545 S
Ce21   O97     2.319   1_655 S
Ce21   O102    2.320   .     S
Ce21   O118    2.482   .     S
Ce21   O128    2.483   1_545 S
Ce22   O71     2.320   .     S
Ce22   O72     2.320   .     S
Ce22   O85     2.481   .     S
Ce22   O87     2.481   .     S
Ce22   O103    2.319   .     S
Ce22   O104    2.319   .     S
Ce22   O117    2.482   .     S
Ce22   O119    2.482   .     S
Ce23   O67     2.320   1_655 S
Ce23   O72     2.320   .     S
Ce23   O86     2.480   .     S
Ce23   O88     2.481   .     S
Ce23   O99     2.319   1_655 S
Ce23   O104    2.320   .     S
Ce23   O118    2.482   .     S
Ce23   O120    2.482   .     S
Ce24   O73     2.321   .     S
Ce24   O74     2.320   .     S
Ce24   O83     2.481   .     S
Ce24   O89     2.481   .     S
Ce24   O105    2.320   .     S
Ce24   O106    2.319   .     S
Ce24   O115    2.482   .     S
Ce24   O121    2.481   .     S
Ce25   O74     2.320   .     S
Ce25   O77     2.320   .     S
Ce25   O84     2.480   .     S
Ce25   O90     2.481   .     S
Ce25   O106    2.320   .     S
Ce25   O109    2.319   .     S
Ce25   O116    2.483   .     S
Ce25   O122    2.481   .     S
Ce26   O75     2.320   .     S
Ce26   O76     2.320   .     S
Ce26   O89     2.480   .     S
Ce26   O91     2.482   .     S
Ce26   O107    2.319   .     S
Ce26   O108    2.319   .     S
Ce26   O121    2.482   .     S
Ce26   O123    2.483   .     S
Ce27   O76     2.320   .     S
Ce27   O79     2.320   .     S
Ce27   O90     2.481   .     S
Ce27   O92     2.482   .     S
Ce27   O108    2.320   .     S
Ce27   O111    2.320   .     S
Ce27   O122    2.483   .     S
Ce27   O124    2.482   .     S
Ce28   O77     2.320   .     S
Ce28   O78     2.320   .     S
Ce28   O87     2.480   .     S
Ce28   O93     2.481   .     S
Ce28   O109    2.319   .     S
Ce28   O110    2.320   .     S
Ce28   O119    2.482   .     S
Ce28   O125    2.482   .     S
Ce29   O73     2.320   1_655 S
Ce29   O78     2.320   .     S
Ce29   O88     2.480   .     S
Ce29   O94     2.481   .     S
Ce29   O105    2.320   1_655 S
Ce29   O110    2.320   .     S
Ce29   O120    2.483   .     S
Ce29   O126    2.481   .     S
Ce30   O79     2.321   .     S
Ce30   O80     2.321   .     S
Ce30   O93     2.480   .     S
Ce30   O95     2.481   .     S
Ce30   O111    2.320   .     S
Ce30   O112    2.320   .     S
Ce30   O125    2.482   .     S
Ce30   O127    2.482   .     S
Ce31   O75     2.320   1_655 S
Ce31   O80     2.320   .     S
Ce31   O94     2.481   .     S
Ce31   O96     2.482   .     S
Ce31   O107    2.319   1_655 S
Ce31   O112    2.320   .     S
Ce31   O126    2.482   .     S
Ce31   O128    2.482   .     S
Ce32   O65     2.319   .     S
Ce32   O66     2.319   .     S
Ce32   O81     2.484   .     S
Ce32   O91     2.480   1_545 S
Ce32   O97     2.320   .     S
Ce32   O98     2.319   .     S
Ce32   O113    2.480   .     S
Ce32   O123    2.484   1_545 S
Ce33   O97     2.461   .     S
Ce33   O99     2.461   .     S
Ce33   O113    2.301   .     S
Ce33   O118    2.301   1_455 S
Ce33   O129    2.220   .     S
Ce33   O131    2.218   .     S
Ce34   O98     2.461   .     S
Ce34   O100    2.461   .     S
Ce34   O113    2.302   .     S
Ce34   O114    2.301   .     S
Ce34   O130    2.220   .     S
Ce34   O145    2.301   .     S
Ce34   O148    2.403   .     S
Ce35   O99     2.461   .     S
Ce35   O105    2.461   .     S
Ce35   O115    2.301   .     S
Ce35   O120    2.301   1_455 S
Ce35   O131    2.219   .     S
Ce35   O135    2.218   .     S
Ce36   O100    2.462   .     S
Ce36   O106    2.461   .     S
Ce36   O115    2.302   .     S
Ce36   O116    2.301   .     S
Ce36   O141    2.690   .     S
Ce36   O144    2.353   .     S
Ce36   O145    2.464   .     S
Ce37   O101    2.461   .     S
Ce37   O103    2.462   .     S
Ce37   O114    2.301   .     S
Ce37   O117    2.302   .     S
Ce37   O132    2.219   .     S
Ce37   O146    2.416   .     S
Ce37   O148    2.311   .     S
Ce38   O102    2.461   .     S
Ce38   O104    2.462   .     S
Ce38   O117    2.301   .     S
Ce38   O118    2.301   .     S
Ce38   O133    2.219   .     S
Ce38   O134    2.219   .     S
Ce39   O103    2.461   .     S
Ce39   O109    2.461   .     S
Ce39   O116    2.301   .     S
Ce39   O119    2.302   .     S
Ce39   O142    2.526   .     S
Ce39   O144    2.475   .     S
Ce39   O146    2.278   .     S
Ce40   O104    2.461   .     S
Ce40   O110    2.462   .     S
Ce40   O119    2.301   .     S
Ce40   O120    2.302   .     S
Ce40   O134    2.219   .     S
Ce40   O138    2.219   .     S
Ce41   O105    2.462   .     S
Ce41   O107    2.461   .     S
Ce41   O121    2.301   .     S
Ce41   O126    2.302   1_455 S
Ce41   O135    2.220   .     S
Ce41   O136    2.219   .     S
Ce42   O106    2.462   .     S
Ce42   O108    2.461   .     S
Ce42   O121    2.302   .     S
Ce42   O122    2.302   .     S
Ce42   O137    2.219   .     S
Ce42   O141    2.130   .     S
Ce43   O97     2.462   1_565 S
Ce43   O107    2.463   .     S
Ce43   O123    2.302   .     S
Ce43   O128    2.302   1_455 S
Ce43   O129    2.218   1_565 S
Ce43   O136    2.219   .     S
Ce44   O98     2.462   1_565 S
Ce44   O108    2.462   .     S
Ce44   O123    2.302   .     S
Ce44   O124    2.302   .     S
Ce44   O130    2.218   1_565 S
Ce44   O137    2.220   .     S
Ce45   O109    2.461   .     S
Ce45   O111    2.462   .     S
Ce45   O122    2.301   .     S
Ce45   O125    2.301   .     S
Ce45   O139    2.219   .     S
Ce45   O142    2.149   .     S
Ce46   O110    2.461   .     S
Ce46   O112    2.462   .     S
Ce46   O125    2.301   .     S
Ce46   O126    2.301   .     S
Ce46   O138    2.219   .     S
Ce46   O140    2.219   .     S
Ce47   O101    2.462   1_565 S
Ce47   O111    2.461   .     S
Ce47   O124    2.302   .     S
Ce47   O127    2.302   .     S
Ce47   O132    2.219   1_565 S
Ce47   O139    2.219   .     S
Ce47   O151    2.289   .     S
Ce48   O102    2.462   1_565 S
Ce48   O112    2.461   .     S
Ce48   O127    2.301   .     S
Ce48   O128    2.301   .     S
Ce48   O133    2.219   1_565 S
Ce48   O140    2.219   .     S
Ce48   O151    2.149   .     S
O49    Ce11    2.216   1_545 S
O50    Ce12    2.216   1_545 S
O53    Ce15    2.219   1_545 S
O54    Ce16    2.219   1_545 S
O65    Ce21    2.320   1_455 S
O65    Ce11    2.462   1_545 S
O66    Ce12    2.462   1_545 S
O67    Ce23    2.320   1_455 S
O69    Ce15    2.460   1_545 S
O70    Ce16    2.460   1_545 S
O73    Ce29    2.320   1_455 S
O75    Ce31    2.320   1_455 S
O86    Ce1     2.303   1_655 S
O88    Ce3     2.302   1_655 S
O91    Ce32    2.480   1_565 S
O92    Ce17    2.481   1_565 S
O94    Ce9     2.302   1_655 S
O95    Ce20    2.481   1_565 S
O96    Ce21    2.481   1_565 S
O96    Ce11    2.302   1_655 S
O97    Ce21    2.319   1_455 S
O97    Ce43    2.462   1_545 S
O98    Ce44    2.462   1_545 S
O99    Ce23    2.319   1_455 S
O101   Ce47    2.462   1_545 S
O102   Ce48    2.462   1_545 S
O105   Ce29    2.320   1_455 S
O107   Ce31    2.319   1_455 S
O118   Ce33    2.301   1_655 S
O120   Ce35    2.301   1_655 S
O123   Ce32    2.484   1_565 S
O124   Ce17    2.483   1_565 S
O126   Ce41    2.302   1_655 S
O127   Ce20    2.482   1_565 S
O128   Ce43    2.302   1_655 S
O128   Ce21    2.483   1_565 S
O129   Ce43    2.218   1_545 S
O130   Ce44    2.218   1_545 S
O132   Ce47    2.219   1_545 S
O133   Ce48    2.219   1_545 S
O141   V150    1.788   .     S
O142   V150    1.806   .     S
O143   V150    1.617   .     S
O144   W149    2.059   .     S
O144   V150    1.895   .     S
O145   W149    1.905   .     S
O146   W149    1.912   .     S
O147   W149    1.733   .     S
O148   W149    1.947   .     S
