data_substrate
_audit_creation_date              2025-06-25
_audit_creation_method            'Materials Studio'
_symmetry_space_group_name_H-M    'P1'
_symmetry_Int_Tables_number       1
_symmetry_cell_setting            triclinic
loop_
_symmetry_equiv_pos_as_xyz
  x,y,z
_cell_length_a                    15.5554
_cell_length_b                    15.5554
_cell_length_c                    28.6250
_cell_angle_alpha                 90.0000
_cell_angle_beta                  90.0000
_cell_angle_gamma                 90.0000
loop_
_atom_site_label
_atom_site_type_symbol
_atom_site_fract_x
_atom_site_fract_y
_atom_site_fract_z
_atom_site_U_iso_or_equiv
_atom_site_adp_type
_atom_site_occupancy
O1     O     0.06081   0.08384   0.07804   0.00000  Uiso   1.00
O2     O     0.31081   0.08384   0.07804   0.00000  Uiso   1.00
O3     O     0.06081   0.33384   0.07804   0.00000  Uiso   1.00
O4     O     0.31081   0.33384   0.07804   0.00000  Uiso   1.00
O5     O     0.06081   0.08384   0.16007   0.00000  Uiso   1.00
O6     O     0.31081   0.08384   0.16007   0.00000  Uiso   1.00
O7     O     0.18581   0.20884   0.16414   0.00000  Uiso   1.00
O8     O     0.43581   0.20884   0.16414   0.00000  Uiso   1.00
O9     O     0.06081   0.33384   0.16007   0.00000  Uiso   1.00
O10    O     0.31081   0.33384   0.16007   0.00000  Uiso   1.00
O11    O     0.18581   0.45884   0.16414   0.00000  Uiso   1.00
O12    O     0.43581   0.45884   0.16414   0.00000  Uiso   1.00
O13    O     0.06081   0.08384   0.25196   0.00000  Uiso   1.00
O14    O     0.31081   0.08384   0.25196   0.00000  Uiso   1.00
O15    O     0.18581   0.20884   0.26660   0.00000  Uiso   1.00
O16    O     0.43581   0.20884   0.26660   0.00000  Uiso   1.00
O17    O     0.06081   0.33384   0.25196   0.00000  Uiso   1.00
O18    O     0.31081   0.33384   0.25196   0.00000  Uiso   1.00
O19    O     0.18581   0.45884   0.26660   0.00000  Uiso   1.00
O20    O     0.43581   0.45884   0.26660   0.00000  Uiso   1.00
Ce21   Ce    0.06081   0.20884   0.11449   0.00000  Uiso   1.00
Ce22   Ce    0.31081   0.20884   0.11449   0.00000  Uiso   1.00
Ce23   Ce    0.06081   0.45884   0.11449   0.00000  Uiso   1.00
Ce24   Ce    0.31081   0.45884   0.11449   0.00000  Uiso   1.00
Ce25   Ce    0.43581   0.08384   0.21015   0.00000  Uiso   1.00
Ce26   Ce    0.18581   0.33384   0.21015   0.00000  Uiso   1.00
Ce27   Ce    0.43581   0.33384   0.21015   0.00000  Uiso   1.00
Ce28   Ce    0.06081   0.20884   0.30734   0.00000  Uiso   1.00
Ce29   Ce    0.31081   0.20884   0.30734   0.00000  Uiso   1.00
Ce30   Ce    0.06081   0.45884   0.30734   0.00000  Uiso   1.00
Ce31   Ce    0.31081   0.45884   0.30734   0.00000  Uiso   1.00
O32    O     0.56081   0.08384   0.07804   0.00000  Uiso   1.00
O33    O     0.81081   0.08384   0.07804   0.00000  Uiso   1.00
O34    O     0.56081   0.33384   0.07804   0.00000  Uiso   1.00
O35    O     0.81081   0.33384   0.07804   0.00000  Uiso   1.00
O36    O     0.56081   0.08384   0.16007   0.00000  Uiso   1.00
O37    O     0.81081   0.08384   0.16007   0.00000  Uiso   1.00
O38    O     0.68581   0.20884   0.16414   0.00000  Uiso   1.00
O39    O     0.93581   0.20884   0.16414   0.00000  Uiso   1.00
O40    O     0.56081   0.33384   0.16007   0.00000  Uiso   1.00
O41    O     0.81081   0.33384   0.16007   0.00000  Uiso   1.00
O42    O     0.68581   0.45884   0.16414   0.00000  Uiso   1.00
O43    O     0.93581   0.45884   0.16414   0.00000  Uiso   1.00
O44    O     0.56081   0.08384   0.25196   0.00000  Uiso   1.00
O45    O     0.81081   0.08384   0.25196   0.00000  Uiso   1.00
O46    O     0.68581   0.20884   0.26660   0.00000  Uiso   1.00
O47    O     0.93581   0.20884   0.26660   0.00000  Uiso   1.00
O48    O     0.56081   0.33384   0.25196   0.00000  Uiso   1.00
O49    O     0.81081   0.33384   0.25196   0.00000  Uiso   1.00
O50    O     0.68581   0.45884   0.26660   0.00000  Uiso   1.00
O51    O     0.93581   0.45884   0.26660   0.00000  Uiso   1.00
Ce52   Ce    0.56081   0.20884   0.11449   0.00000  Uiso   1.00
Ce53   Ce    0.81081   0.20884   0.11449   0.00000  Uiso   1.00
Ce54   Ce    0.56081   0.45884   0.11449   0.00000  Uiso   1.00
Ce55   Ce    0.81081   0.45884   0.11449   0.00000  Uiso   1.00
Ce56   Ce    0.68581   0.08384   0.21015   0.00000  Uiso   1.00
Ce57   Ce    0.93581   0.08384   0.21015   0.00000  Uiso   1.00
Ce58   Ce    0.68581   0.33384   0.21015   0.00000  Uiso   1.00
Ce59   Ce    0.93581   0.33384   0.21015   0.00000  Uiso   1.00
Ce60   Ce    0.56081   0.20884   0.30734   0.00000  Uiso   1.00
Ce61   Ce    0.81081   0.20884   0.30734   0.00000  Uiso   1.00
Ce62   Ce    0.56081   0.45884   0.30734   0.00000  Uiso   1.00
Ce63   Ce    0.81081   0.45884   0.30734   0.00000  Uiso   1.00
O64    O     0.06081   0.58384   0.07804   0.00000  Uiso   1.00
O65    O     0.31081   0.58384   0.07804   0.00000  Uiso   1.00
O66    O     0.06081   0.83384   0.07804   0.00000  Uiso   1.00
O67    O     0.31081   0.83384   0.07804   0.00000  Uiso   1.00
O68    O     0.06081   0.58384   0.16007   0.00000  Uiso   1.00
O69    O     0.31081   0.58384   0.16007   0.00000  Uiso   1.00
O70    O     0.18581   0.70884   0.16414   0.00000  Uiso   1.00
O71    O     0.43581   0.70884   0.16414   0.00000  Uiso   1.00
O72    O     0.06081   0.83384   0.16007   0.00000  Uiso   1.00
O73    O     0.31081   0.83384   0.16007   0.00000  Uiso   1.00
O74    O     0.18581   0.95884   0.16414   0.00000  Uiso   1.00
O75    O     0.43581   0.95884   0.16414   0.00000  Uiso   1.00
O76    O     0.06081   0.58384   0.25196   0.00000  Uiso   1.00
O77    O     0.31081   0.58384   0.25196   0.00000  Uiso   1.00
O78    O     0.18581   0.70884   0.26660   0.00000  Uiso   1.00
O79    O     0.43581   0.70884   0.26660   0.00000  Uiso   1.00
O80    O     0.06081   0.83384   0.25196   0.00000  Uiso   1.00
O81    O     0.31081   0.83384   0.25196   0.00000  Uiso   1.00
O82    O     0.18581   0.95884   0.26660   0.00000  Uiso   1.00
O83    O     0.43581   0.95884   0.26660   0.00000  Uiso   1.00
Ce84   Ce    0.06081   0.70884   0.11449   0.00000  Uiso   1.00
Ce85   Ce    0.31081   0.70884   0.11449   0.00000  Uiso   1.00
Ce86   Ce    0.06081   0.95884   0.11449   0.00000  Uiso   1.00
Ce87   Ce    0.31081   0.95884   0.11449   0.00000  Uiso   1.00
Ce88   Ce    0.18581   0.58384   0.21015   0.00000  Uiso   1.00
Ce89   Ce    0.43581   0.58384   0.21015   0.00000  Uiso   1.00
Ce90   Ce    0.18581   0.83384   0.21015   0.00000  Uiso   1.00
Ce91   Ce    0.43581   0.83384   0.21015   0.00000  Uiso   1.00
Ce92   Ce    0.06081   0.70884   0.30734   0.00000  Uiso   1.00
Ce93   Ce    0.31081   0.70884   0.30734   0.00000  Uiso   1.00
Ce94   Ce    0.06081   0.95884   0.30734   0.00000  Uiso   1.00
Ce95   Ce    0.31081   0.95884   0.30734   0.00000  Uiso   1.00
O96    O     0.56081   0.58384   0.07804   0.00000  Uiso   1.00
O97    O     0.81081   0.58384   0.07804   0.00000  Uiso   1.00
O98    O     0.56081   0.83384   0.07804   0.00000  Uiso   1.00
O99    O     0.81081   0.83384   0.07804   0.00000  Uiso   1.00
O100   O     0.56081   0.58384   0.16007   0.00000  Uiso   1.00
O101   O     0.81081   0.58384   0.16007   0.00000  Uiso   1.00
O102   O     0.68581   0.70884   0.16414   0.00000  Uiso   1.00
O103   O     0.93581   0.70884   0.16414   0.00000  Uiso   1.00
O104   O     0.56081   0.83384   0.16007   0.00000  Uiso   1.00
O105   O     0.81081   0.83384   0.16007   0.00000  Uiso   1.00
O106   O     0.68581   0.95884   0.16414   0.00000  Uiso   1.00
O107   O     0.93581   0.95884   0.16414   0.00000  Uiso   1.00
O108   O     0.56081   0.58384   0.25196   0.00000  Uiso   1.00
O109   O     0.81081   0.58384   0.25196   0.00000  Uiso   1.00
O110   O     0.68581   0.70884   0.26660   0.00000  Uiso   1.00
O111   O     0.93581   0.70884   0.26660   0.00000  Uiso   1.00
O112   O     0.56081   0.83384   0.25196   0.00000  Uiso   1.00
O113   O     0.81081   0.83384   0.25196   0.00000  Uiso   1.00
O114   O     0.68581   0.95884   0.26660   0.00000  Uiso   1.00
O115   O     0.93581   0.95884   0.26660   0.00000  Uiso   1.00
Ce116  Ce    0.56081   0.70884   0.11449   0.00000  Uiso   1.00
Ce117  Ce    0.81081   0.70884   0.11449   0.00000  Uiso   1.00
Ce118  Ce    0.56081   0.95884   0.11449   0.00000  Uiso   1.00
Ce119  Ce    0.81081   0.95884   0.11449   0.00000  Uiso   1.00
Ce120  Ce    0.68581   0.58384   0.21015   0.00000  Uiso   1.00
Ce121  Ce    0.93581   0.58384   0.21015   0.00000  Uiso   1.00
Ce122  Ce    0.68581   0.83384   0.21015   0.00000  Uiso   1.00
Ce123  Ce    0.93581   0.83384   0.21015   0.00000  Uiso   1.00
Ce124  Ce    0.56081   0.70884   0.30734   0.00000  Uiso   1.00
Ce125  Ce    0.81081   0.70884   0.30734   0.00000  Uiso   1.00
Ce126  Ce    0.56081   0.95884   0.30734   0.00000  Uiso   1.00
Ce127  Ce    0.81081   0.95884   0.30734   0.00000  Uiso   1.00
Ce128  Ce    0.18446   1.09485   0.21015   0.00000  Uiso   1.00
loop_
_geom_bond_atom_site_label_1
_geom_bond_atom_site_label_2
_geom_bond_distance
_geom_bond_site_symmetry_2
_ccdc_geom_bond_type
O1     Ce21    2.207   .     S
O1     Ce86    2.207   1_545 S
O2     Ce22    2.207   .     S
O2     Ce87    2.207   1_545 S
O3     Ce21    2.207   .     S
O3     Ce23    2.207   .     S
O4     Ce22    2.207   .     S
O4     Ce24    2.207   .     S
O5     Ce21    2.342   .     S
O5     Ce57    2.416   1_455 S
O5     Ce86    2.342   1_545 S
O5     Ce128   2.405   1_545 S
O6     Ce22    2.342   .     S
O6     Ce25    2.416   .     S
O6     Ce87    2.342   1_545 S
O6     Ce128   2.439   1_545 S
O7     Ce21    2.408   .     S
O7     Ce22    2.408   .     S
O7     Ce26    2.349   .     S
O7     Ce128   2.209   1_545 S
O8     Ce22    2.408   .     S
O8     Ce25    2.349   .     S
O8     Ce27    2.349   .     S
O8     Ce52    2.408   .     S
O9     Ce21    2.342   .     S
O9     Ce23    2.342   .     S
O9     Ce26    2.416   .     S
O9     Ce59    2.416   1_455 S
O10    Ce22    2.342   .     S
O10    Ce24    2.342   .     S
O10    Ce26    2.416   .     S
O10    Ce27    2.416   .     S
O11    Ce23    2.408   .     S
O11    Ce24    2.408   .     S
O11    Ce26    2.349   .     S
O11    Ce88    2.349   .     S
O12    Ce24    2.408   .     S
O12    Ce27    2.349   .     S
O12    Ce54    2.408   .     S
O12    Ce89    2.349   .     S
O13    Ce28    2.509   .     S
O13    Ce57    2.283   1_455 S
O13    Ce94    2.509   1_545 S
O13    Ce128   2.272   1_545 S
O14    Ce25    2.283   .     S
O14    Ce29    2.509   .     S
O14    Ce95    2.509   1_545 S
O14    Ce128   2.307   1_545 S
O15    Ce26    2.528   .     S
O15    Ce28    2.267   .     S
O15    Ce29    2.267   .     S
O15    Ce128   2.399   1_545 S
O16    Ce25    2.528   .     S
O16    Ce27    2.528   .     S
O16    Ce29    2.267   .     S
O16    Ce60    2.267   .     S
O17    Ce26    2.283   .     S
O17    Ce28    2.509   .     S
O17    Ce30    2.509   .     S
O17    Ce59    2.283   1_455 S
O18    Ce26    2.283   .     S
O18    Ce27    2.283   .     S
O18    Ce29    2.509   .     S
O18    Ce31    2.509   .     S
O19    Ce26    2.528   .     S
O19    Ce30    2.267   .     S
O19    Ce31    2.267   .     S
O19    Ce88    2.528   .     S
O20    Ce27    2.528   .     S
O20    Ce31    2.267   .     S
O20    Ce62    2.267   .     S
O20    Ce89    2.528   .     S
Ce21   O39     2.408   1_455 S
Ce21   Ce128   3.787   1_545 S
Ce22   Ce128   3.809   1_545 S
Ce23   O43     2.408   1_455 S
Ce23   O64     2.207   .     S
Ce23   O68     2.342   .     S
Ce24   O65     2.207   .     S
Ce24   O69     2.342   .     S
Ce25   O36     2.416   .     S
Ce25   O44     2.283   .     S
Ce25   O75     2.349   1_545 S
Ce25   O83     2.528   1_545 S
Ce26   Ce128   3.718   1_545 S
Ce27   O40     2.416   .     S
Ce27   O48     2.283   .     S
Ce28   O47     2.267   1_455 S
Ce28   Ce128   3.819   1_545 S
Ce30   O51     2.267   1_455 S
Ce30   O76     2.509   .     S
Ce31   O77     2.509   .     S
O32    Ce52    2.207   .     S
O32    Ce118   2.207   1_545 S
O33    Ce53    2.207   .     S
O33    Ce119   2.207   1_545 S
O34    Ce52    2.207   .     S
O34    Ce54    2.207   .     S
O35    Ce53    2.207   .     S
O35    Ce55    2.207   .     S
O36    Ce52    2.342   .     S
O36    Ce56    2.416   .     S
O36    Ce118   2.342   1_545 S
O37    Ce53    2.342   .     S
O37    Ce56    2.416   .     S
O37    Ce57    2.416   .     S
O37    Ce119   2.342   1_545 S
O38    Ce52    2.408   .     S
O38    Ce53    2.408   .     S
O38    Ce56    2.349   .     S
O38    Ce58    2.349   .     S
O39    Ce21    2.408   1_655 S
O39    Ce53    2.408   .     S
O39    Ce57    2.349   .     S
O39    Ce59    2.349   .     S
O40    Ce52    2.342   .     S
O40    Ce54    2.342   .     S
O40    Ce58    2.416   .     S
O41    Ce53    2.342   .     S
O41    Ce55    2.342   .     S
O41    Ce58    2.416   .     S
O41    Ce59    2.416   .     S
O42    Ce54    2.408   .     S
O42    Ce55    2.408   .     S
O42    Ce58    2.349   .     S
O42    Ce120   2.349   .     S
O43    Ce23    2.408   1_655 S
O43    Ce55    2.408   .     S
O43    Ce59    2.349   .     S
O43    Ce121   2.349   .     S
O44    Ce56    2.283   .     S
O44    Ce60    2.509   .     S
O44    Ce126   2.509   1_545 S
O45    Ce56    2.283   .     S
O45    Ce57    2.283   .     S
O45    Ce61    2.509   .     S
O45    Ce127   2.509   1_545 S
O46    Ce56    2.528   .     S
O46    Ce58    2.528   .     S
O46    Ce60    2.267   .     S
O46    Ce61    2.267   .     S
O47    Ce28    2.267   1_655 S
O47    Ce57    2.528   .     S
O47    Ce59    2.528   .     S
O47    Ce61    2.267   .     S
O48    Ce58    2.283   .     S
O48    Ce60    2.509   .     S
O48    Ce62    2.509   .     S
O49    Ce58    2.283   .     S
O49    Ce59    2.283   .     S
O49    Ce61    2.509   .     S
O49    Ce63    2.509   .     S
O50    Ce58    2.528   .     S
O50    Ce62    2.267   .     S
O50    Ce63    2.267   .     S
O50    Ce120   2.528   .     S
O51    Ce30    2.267   1_655 S
O51    Ce59    2.528   .     S
O51    Ce63    2.267   .     S
O51    Ce121   2.528   .     S
Ce54   O96     2.207   .     S
Ce54   O100    2.342   .     S
Ce55   O97     2.207   .     S
Ce55   O101    2.342   .     S
Ce56   O106    2.349   1_545 S
Ce56   O114    2.528   1_545 S
Ce57   O5      2.416   1_655 S
Ce57   O13     2.283   1_655 S
Ce57   O107    2.349   1_545 S
Ce57   O115    2.528   1_545 S
Ce59   O9      2.416   1_655 S
Ce59   O17     2.283   1_655 S
Ce62   O108    2.509   .     S
Ce63   O109    2.509   .     S
O64    Ce84    2.207   .     S
O65    Ce85    2.207   .     S
O66    Ce84    2.207   .     S
O66    Ce86    2.207   .     S
O67    Ce85    2.207   .     S
O67    Ce87    2.207   .     S
O68    Ce84    2.342   .     S
O68    Ce88    2.416   .     S
O68    Ce121   2.416   1_455 S
O69    Ce85    2.342   .     S
O69    Ce88    2.416   .     S
O69    Ce89    2.416   .     S
O70    Ce84    2.408   .     S
O70    Ce85    2.408   .     S
O70    Ce88    2.349   .     S
O70    Ce90    2.349   .     S
O71    Ce85    2.408   .     S
O71    Ce89    2.349   .     S
O71    Ce91    2.349   .     S
O71    Ce116   2.408   .     S
O72    Ce84    2.342   .     S
O72    Ce86    2.342   .     S
O72    Ce90    2.416   .     S
O72    Ce123   2.416   1_455 S
O73    Ce85    2.342   .     S
O73    Ce87    2.342   .     S
O73    Ce90    2.416   .     S
O73    Ce91    2.416   .     S
O74    Ce86    2.408   .     S
O74    Ce87    2.408   .     S
O74    Ce90    2.349   .     S
O74    Ce128   2.492   .     S
O75    Ce25    2.349   1_565 S
O75    Ce87    2.408   .     S
O75    Ce91    2.349   .     S
O75    Ce118   2.408   .     S
O76    Ce88    2.283   .     S
O76    Ce92    2.509   .     S
O76    Ce121   2.283   1_455 S
O77    Ce88    2.283   .     S
O77    Ce89    2.283   .     S
O77    Ce93    2.509   .     S
O78    Ce88    2.528   .     S
O78    Ce90    2.528   .     S
O78    Ce92    2.267   .     S
O78    Ce93    2.267   .     S
O79    Ce89    2.528   .     S
O79    Ce91    2.528   .     S
O79    Ce93    2.267   .     S
O79    Ce124   2.267   .     S
O80    Ce90    2.283   .     S
O80    Ce92    2.509   .     S
O80    Ce94    2.509   .     S
O80    Ce123   2.283   1_455 S
O81    Ce90    2.283   .     S
O81    Ce91    2.283   .     S
O81    Ce93    2.509   .     S
O81    Ce95    2.509   .     S
O82    Ce90    2.528   .     S
O82    Ce94    2.267   .     S
O82    Ce95    2.267   .     S
O82    Ce128   2.662   .     S
O83    Ce25    2.528   1_565 S
O83    Ce91    2.528   .     S
O83    Ce95    2.267   .     S
O83    Ce126   2.267   .     S
Ce84   O103    2.408   1_455 S
Ce86   O1      2.207   1_565 S
Ce86   O5      2.342   1_565 S
Ce86   O107    2.408   1_455 S
Ce87   O2      2.207   1_565 S
Ce87   O6      2.342   1_565 S
Ce89   O100    2.416   .     S
Ce89   O108    2.283   .     S
Ce91   O104    2.416   .     S
Ce91   O112    2.283   .     S
Ce92   O111    2.267   1_455 S
Ce94   O13     2.509   1_565 S
Ce94   O115    2.267   1_455 S
Ce95   O14     2.509   1_565 S
O96    Ce116   2.207   .     S
O97    Ce117   2.207   .     S
O98    Ce116   2.207   .     S
O98    Ce118   2.207   .     S
O99    Ce117   2.207   .     S
O99    Ce119   2.207   .     S
O100   Ce116   2.342   .     S
O100   Ce120   2.416   .     S
O101   Ce117   2.342   .     S
O101   Ce120   2.416   .     S
O101   Ce121   2.416   .     S
O102   Ce116   2.408   .     S
O102   Ce117   2.408   .     S
O102   Ce120   2.349   .     S
O102   Ce122   2.349   .     S
O103   Ce84    2.408   1_655 S
O103   Ce117   2.408   .     S
O103   Ce121   2.349   .     S
O103   Ce123   2.349   .     S
O104   Ce116   2.342   .     S
O104   Ce118   2.342   .     S
O104   Ce122   2.416   .     S
O105   Ce117   2.342   .     S
O105   Ce119   2.342   .     S
O105   Ce122   2.416   .     S
O105   Ce123   2.416   .     S
O106   Ce56    2.349   1_565 S
O106   Ce118   2.408   .     S
O106   Ce119   2.408   .     S
O106   Ce122   2.349   .     S
O107   Ce57    2.349   1_565 S
O107   Ce86    2.408   1_655 S
O107   Ce119   2.408   .     S
O107   Ce123   2.349   .     S
O108   Ce120   2.283   .     S
O108   Ce124   2.509   .     S
O109   Ce120   2.283   .     S
O109   Ce121   2.283   .     S
O109   Ce125   2.509   .     S
O110   Ce120   2.528   .     S
O110   Ce122   2.528   .     S
O110   Ce124   2.267   .     S
O110   Ce125   2.267   .     S
O111   Ce92    2.267   1_655 S
O111   Ce121   2.528   .     S
O111   Ce123   2.528   .     S
O111   Ce125   2.267   .     S
O112   Ce122   2.283   .     S
O112   Ce124   2.509   .     S
O112   Ce126   2.509   .     S
O113   Ce122   2.283   .     S
O113   Ce123   2.283   .     S
O113   Ce125   2.509   .     S
O113   Ce127   2.509   .     S
O114   Ce56    2.528   1_565 S
O114   Ce122   2.528   .     S
O114   Ce126   2.267   .     S
O114   Ce127   2.267   .     S
O115   Ce57    2.528   1_565 S
O115   Ce94    2.267   1_655 S
O115   Ce123   2.528   .     S
O115   Ce127   2.267   .     S
Ce118  O32     2.207   1_565 S
Ce118  O36     2.342   1_565 S
Ce119  O33     2.207   1_565 S
Ce119  O37     2.342   1_565 S
Ce121  O68     2.416   1_655 S
Ce121  O76     2.283   1_655 S
Ce123  O72     2.416   1_655 S
Ce123  O80     2.283   1_655 S
Ce126  O44     2.509   1_565 S
Ce127  O45     2.509   1_565 S
Ce128  O5      2.405   1_565 S
Ce128  O7      2.209   1_565 S
Ce128  O13     2.272   1_565 S
Ce128  O6      2.439   1_565 S
Ce128  O14     2.307   1_565 S
Ce128  O15     2.399   1_565 S
Ce128  Ce26    3.718   1_565 S
Ce128  Ce21    3.787   1_565 S
Ce128  Ce22    3.809   1_565 S
Ce128  Ce28    3.819   1_565 S
